Version 4.1
SHEET 1 880 680
SYMBOL STM32G431 112 32 R0
SYMATTR InstName X1
